fixtures/synthetic_quirks_v33.raw
0, 100.00, 33, 0, 0, 50.00 / synthetic 4-bus case exercising RAW v33 quirks (fixtures/PROVENANCE-raw.md)
SYNTHETIC QUIRKS CASE -- CZ=2/3, CW=2/3, CM=2, parallel circuits, ZIP load, short records
not a real system; every expected value is hand-derived in the provenance note
1,'HV SLACK', 138.0, 3, 1, 1, 1, 1.00000, 0.0000, 1.10000, 0.90000, 1.10000, 0.90000
2,'HV LOAD', 138.0, 1, 1, 1, 1, 0.95000, -2.5000, 1.10000, 0.90000, 1.10000, 0.90000
3,'MV GEN', 13.8, 2, 2, 1, 1, 1.02000, -1.0000, 1.05000, 0.95000, 1.05000, 0.95000
4,'MV LOAD, SHORT', 13.8, 1, 2, 2, 1, 1.00000, -3.0000                          / 9-field bus record: no NVHI..EVLO
0 / END OF BUS DATA, BEGIN LOAD DATA
2,'1 ', 1, 1, 1, 40.000, 10.000, 10.000, 2.000, 20.000, 4.000, 1, 1, 0          / ZIP load: P, I and Y parts
4,'1 ', 1, 2, 2, 20.000, 5.000, 0.000, 0.000, 0.000, 0.000, 1, 1, 0
4,'2 ', 1, 2, 2, 5.000, 1.000, 0.000, 0.000, 0.000, 0.000, 1, 1, 0             / second load on the same bus
4,'3 ', 0, 2, 2, 99.000, 99.000, 0.000, 0.000, 0.000, 0.000, 1, 1, 0            / out of service
0 / END OF LOAD DATA, BEGIN FIXED SHUNT DATA
2,'1 ', 1, 1.000, 15.000
0 / END OF FIXED SHUNT DATA, BEGIN GENERATOR DATA
1,'1 ', 50.000, 0.000, 100.000, -100.000, 1.00000, 0, 100.000, 0.0, 1.0, 0.0, 0.0, 1.0, 1, 100.0, 200.000, 0.000, 1, 1.0, 0, 1.0, 0, 1.0, 0, 1.0, 0, 1.0
3,'1 ', 30.000, 5.000, 50.000, -20.000, 1.02000, 0, 80.000, 0.0, 1.0, 0.0, 0.0, 1.0, 1, 100.0, 80.000, 10.000, 1, 1.0, 0, 1.0, 0, 1.0, 0, 1.0, 0, 1.0
3,'2 ', 0.000, 0.000, 10.000, -10.000, 1.02000, 0, 20.000, 0.0, 1.0, 0.0, 0.0, 1.0, 0, 100.0, 20.000, 0.000   / short record (no owners), STAT 0
0 / END OF GENERATOR DATA, BEGIN BRANCH DATA
1, 2, '1 ', 0.01000, 0.10000, 0.02000, 150.00, 0.00, 0.00, 0.00000, 0.00000, 0.00000, 0.00000, 1, 1, 10.00, 1, 1.0, 0, 1.0, 0, 1.0, 0, 1.0
1, 2, '2 ', 0.02000, 0.20000, 0.04000, 100.00, 0.00, 0.00, 0.00000, 0.01000, 0.00200, 0.00000, 1, 1, 10.00, 1, 1.0, 0, 1.0, 0, 1.0, 0, 1.0
0 / END OF BRANCH DATA, BEGIN TRANSFORMER DATA
2, 3, 0, '1 ', 2, 2, 2, 20000.0, 0.02000, 2, 'T1 CW2 CZ2 CM2', 1, 1, 1.0, 0, 1.0, 0, 1.0, 0, 1.0, '            '
0.00500, 0.08000, 50.00
144.900, 0.000, 0.000, 60.00, 0.00, 0.00, 0, 0, 1.1, 0.9, 1.1, 0.9, 33, 0, 0.0, 0.0, 0.0
13.800, 0.000
3, 4, 0, '1 ', 3, 3, 1, 0.00000, 0.00000, 2, 'T2 CW3 CZ3 CM1', 1, 1, 1.0, 0, 1.0, 0, 1.0, 0, 1.0, '            '
10000.0, 0.12000, 25.00
0.98000, 14.490, 5.000, 30.00, 0.00, 0.00, 0, 0, 1.1, 0.9, 1.1, 0.9, 33, 0, 0.0, 0.0, 0.0
1.00000, 0.000
0 / END OF TRANSFORMER DATA, BEGIN AREA DATA
1, 1, 0.000, 999.990, 'AREA HV'
2, 3, 0.000, 999.990, 'AREA MV'
0 / END OF AREA DATA, BEGIN TWO-TERMINAL DC DATA
0 / END OF TWO-TERMINAL DC DATA, BEGIN VSC DC LINE DATA
0 / END OF VSC DC LINE DATA, BEGIN IMPEDANCE CORRECTION DATA
0 / END OF IMPEDANCE CORRECTION DATA, BEGIN MULTI-TERMINAL DC DATA
0 / END OF MULTI-TERMINAL DC DATA, BEGIN MULTI-SECTION LINE DATA
0 / END OF MULTI-SECTION LINE DATA, BEGIN ZONE DATA
1, 'ZONE-A'
2, 'ZONE-B'
0 / END OF ZONE DATA, BEGIN INTER-AREA TRANSFER DATA
0 / END OF INTER-AREA TRANSFER DATA, BEGIN OWNER DATA
1, 'OWNER ONE'
0 / END OF OWNER DATA, BEGIN FACTS DEVICE DATA
0 / END OF FACTS DEVICE DATA, BEGIN SWITCHED SHUNT DATA
4, 1, 0, 1, 1.05, 0.95, 0, 100.0, '        ', 5.000, 1, 5.000
0 / END OF SWITCHED SHUNT DATA, BEGIN GNE DATA
0 / END OF GNE DATA, BEGIN INDUCTION MACHINE DATA
0 / END OF INDUCTION MACHINE DATA
Q
